<?xml version="1.0" encoding="UTF-8"?>

<!-- generated on 2024-09-29 23:23:50.057467 by randomTrips.py v1_20_0+0002-343658e7c64
<configuration>
    <net-file value="NETWORK.net.xml"/>
    <end value="80.0"/>
</configuration>
-->

<routes xmlns:xsi="http://www.w3.org/2001/XMLSchema-instance" xsi:noNamespaceSchemaLocation="http://sumo.dlr.de/xsd/routes_file.xsd">
    <trip id="0" depart="0.00" from="E10" to="E4"/>
    <trip id="50" depart="0.00" from="-E25" to="E24"/>
    <trip id="1" depart="1.00" from="E10" to="E24"/>
    <trip id="51" depart="1.00" from="-E25" to="E26"/>
    <trip id="2" depart="2.00" from="E10" to="E25"/>
    <trip id="52" depart="2.00" from="-E25" to="E29"/>
    <trip id="3" depart="3.00" from="E10" to="E4"/>
    <trip id="53" depart="3.00" from="-E25" to="-E24"/>
    <trip id="54" depart="4.00" from="-E25" to="E13"/>
    <trip id="4" depart="4.00" from="E10" to="E24"/>
    <trip id="55" depart="5.00" from="-E25" to="E8"/>
    <trip id="5" depart="5.00" from="E10" to="E25"/>
    <trip id="56" depart="6.00" from="-E25" to="E14"/>
    <trip id="6" depart="6.00" from="E10" to="E4"/>
    <trip id="7" depart="7.00" from="E10" to="E24"/>
    <trip id="57" depart="7.00" from="-E25" to="E17"/>
    <trip id="8" depart="8.00" from="E10" to="E25"/>
    <trip id="58" depart="8.00" from="-E25" to="E19"/>
    <trip id="9" depart="9.00" from="E10" to="E4"/>
    <trip id="59" depart="9.00" from="-E25" to="E12"/>
    <trip id="40" depart="20.00" from="E10" to="E4"/>
    <trip id="10" depart="20.00" from="-E4" to="E24"/>
    <trip id="41" depart="21.00" from="E10" to="E24"/>
    <trip id="11" depart="21.00" from="-E4" to="E25"/>
    <trip id="42" depart="22.00" from="E10" to="E25"/>
    <trip id="12" depart="22.00" from="-E4" to="E29"/>
    <trip id="43" depart="23.00" from="E10" to="E4"/>
    <trip id="13" depart="23.00" from="-E4" to="E24"/>
    <trip id="44" depart="24.00" from="E10" to="E24"/>
    <trip id="14" depart="24.00" from="-E4" to="E25"/>
    <trip id="45" depart="25.00" from="E10" to="E25"/>
    <trip id="15" depart="25.00" from="-E4" to="E29"/>
    <trip id="16" depart="26.00" from="-E4" to="E24"/>
    <trip id="46" depart="26.00" from="E10" to="E4"/>
    <trip id="47" depart="27.00" from="E10" to="E24"/>
    <trip id="17" depart="27.00" from="-E4" to="E25"/>
    <trip id="48" depart="28.00" from="E10" to="E25"/>
    <trip id="18" depart="28.00" from="-E4" to="E29"/>
    <trip id="49" depart="29.00" from="E10" to="E4"/>
    <trip id="19" depart="29.00" from="-E4" to="E24"/>
    <trip id="20" depart="30.00" from="-E24" to="E25"/>
    <trip id="21" depart="31.00" from="-E24" to="E29"/>
    <trip id="22" depart="32.00" from="-E24" to="E25"/>
    <trip id="23" depart="33.00" from="-E24" to="E29"/>
    <trip id="24" depart="34.00" from="-E24" to="E25"/>
    <trip id="25" depart="35.00" from="-E24" to="E29"/>
    <trip id="26" depart="36.00" from="-E24" to="E25"/>
    <trip id="27" depart="37.00" from="-E24" to="E29"/>
    <trip id="28" depart="38.00" from="-E24" to="E25"/>
    <trip id="29" depart="39.00" from="-E24" to="E29"/>
    <trip id="30" depart="40.00" from="-E25" to="E24"/>
    <trip id="31" depart="41.00" from="-E25" to="E26"/>
    <trip id="32" depart="42.00" from="-E25" to="E29"/>
    <trip id="33" depart="43.00" from="-E25" to="-E24"/>
    <trip id="34" depart="44.00" from="-E25" to="E13"/>
    <trip id="35" depart="45.00" from="-E25" to="E8"/>
    <trip id="36" depart="46.00" from="-E25" to="E14"/>
    <trip id="37" depart="47.00" from="-E25" to="E17"/>
    <trip id="38" depart="48.00" from="-E25" to="E19"/>
    <trip id="39" depart="49.00" from="-E25" to="E12"/>
</routes>